75
Coordinates from ORCA-job C53-Pd2Ni2-M1
  C   -0.00628121048490      0.26521135990822     -0.00530096550015
  C   -0.04597574861565      0.03069060223316      1.41700792975470
  C   1.17308327251027     -0.28472709584779      2.11146011054788
  C   2.41952222175111     -0.28812681845781      1.36433950683530
  C   2.43250189902889      0.05868815688967     -0.03930965088222
  C   1.17636689439717      0.28828071697609     -0.70200628698079
  C   3.66192143394889     -0.55506014430255      1.97205133131190
  C   2.26183304893836     -0.90344317082624      4.32384193608868
  C   1.12496253546101     -0.46834617867019      3.53537724587051
  C   5.05481384496685     -0.84257865306647      4.33270031620375
  C   4.93496420839352     -0.46605412500397      5.71964156440948
  C   3.66086510914466     -0.48330380729012      6.41670097044146
  C   2.38869941663996     -0.53710048384963      5.71816987883781
  C   6.17163035108287     -0.22213239738626      6.42982104277646
  C   6.14851560403161     -0.05906887393918      7.84383308590374
  C   4.89874125781042     -0.07885955706092      8.54702076501367
  C   3.66183198066580     -0.22985844951632      7.83991296806814
  C   7.38616923109851      0.13041712220391      8.55254100363591
  C   7.34136005515782      0.26045678369405      9.98446511744268
  C   6.14695261671323      0.24097526334381     10.66351952135852
  C   4.89113953942282      0.09446744056393      9.97547918623456
  C   3.66019530810988      0.14018893355986     10.65866386189583
  C   2.43102216989607      0.07306627816190      9.97713394359248
  C   2.42504363951436     -0.10369510000616      8.54786821804193
  C   1.18096794768612     -0.08796059919630      7.83854999316008
  C   1.16429489744903     -0.25034223189034      6.42043423328686
  C   -0.06601933943026     -0.13231720488592      5.69459403277674
  C   -0.07771978670270     -0.18255575666034      4.26033735256585
  C   -1.29701052044139      0.07548640849809      3.54039659200651
  C   -1.25528672470085      0.14695279088539      2.13746374821453
  C   -2.51043797240076      0.27253057146497      4.29029848728048
  C   -2.50791974712226      0.27302539884544      5.66360437358152
  C   -1.28858237033130      0.10333951399935      6.41239684511412
  C   -1.26160165233036      0.18746612586535      7.81946446961765
  C   -0.05726084011307      0.10597804221895      8.54583021416370
  C   -0.01734530465023      0.22807616511939      9.97920717956603
  C   1.17326557366132      0.20885904015993     10.66361025180340
  C   8.59198062983225      0.19809530473171      7.82490453824265
  C   8.62247129174817      0.09632282875890      6.41948759957089
  C   7.39646183393055     -0.12747544976330      5.70096543006668
  C   7.40695483228739     -0.20076379650598      4.26499137693659
  C   6.20306733430729     -0.47154672896682      3.54230030644973
  C   6.16026064853671     -0.31324765922861      2.11629914853782
  C   4.91255468830694     -0.30732277959157      1.36746560253644
  C   4.90731794777476      0.03060110001193     -0.03767088798037
  C   3.67122380689064      0.16928096933996     -0.70559600546597
  C   9.84450169380932      0.23578236483131      5.66894809859082
  C   9.84746427467554      0.21372172752972      4.29564852351053
  C   8.63259648069468      0.02475341221336      3.54508416533443
  C   8.59546378740994      0.07732333983465      2.14120915451427
  C   7.38543387120802     -0.02843045195361      1.41972599031660
  C   7.35070175470352      0.18949721385399     -0.00531304144800
  C   6.16832758322496      0.22999981666034     -0.70159431933449
  H   6.16470860382622      0.43978784489981     -1.78259858170639
  H   8.30628109299399      0.36471640722821     -0.52336716873928
  H   9.53010619564357      0.26103120760784      1.58796106087634
  H   10.78736792191953      0.35358005474492      3.73943491271102
  H   10.78282636695169      0.38875349031200      6.22413610787047
  H   -3.44680202614195      0.43591516966492      3.73460144696991
  H   8.28999750916832      0.38830271795902     10.52832167706811
  H   6.12860651671474      0.35439211269235     11.75849417161045
  H   -0.95820776898858      0.46480952679057     -0.52125797374441
  H   -2.18560235755717      0.35377140390783      1.58505078891198
  H   3.65974615745161      0.26989990014943     11.75254361688728
  H   1.18799089873653      0.32004793521158     11.75883942089435
  H   -0.96884787159648      0.35277899145762     10.51883805017655
  H   -2.20528675579741      0.35053025891726      8.36330820686030
  H   -3.44351951008461      0.43295185450847      6.22140469573389
  H   1.18372500036925      0.50516238224013     -1.78157238254119
  H   3.67471224866505      0.42012855446970     -1.77801862725410
  H   9.53615782764178      0.35805335488764      8.36895934340040
  Pd  2.09723608033936     -2.95669337687504      4.77387611440117
  Pd  4.20582374192810     -4.07638136774253      3.58585176379113
  Ni  3.68105659620849     -1.64526426569846      3.41652919709543
  Ni  4.57084134211043     -2.40813290482424      5.37620414930829
